9
Properties=species:S:1:pos:R:3 pbc="F F F"
C        0.00720000      -0.56870000       0.00000000
C       -1.28540000       0.24990000       0.00000000
O        1.13040000       0.31470000       0.00000000
H        0.03920000      -1.19720000       0.89000000
H        0.03920000      -1.19720000      -0.89000000
H       -1.31750000       0.87840000       0.89000000
H       -1.31750000       0.87840000      -0.89000000
H       -2.14220000      -0.42390000       0.00000000
H        1.98570000      -0.13650000       0.00000000
