9
Properties=species:S:1:pos:R:3 pbc="F F F"
C        1.18649313       0.22185741      -0.38326844
C        0.00529427      -0.63807785      -0.01059477
C       -1.17405044       0.22537018       0.37848979
O       -2.24159238       0.09785438      -0.17762684
O        2.23128021       0.08948184       0.17978190
H        0.97124340       1.00128230      -1.16123847
H       -0.23318273      -1.37893404      -0.80123256
H        0.30917643      -1.25580996       0.89258006
H       -1.09648246       0.93475153       1.21885293
