16
Properties=species:S:1:pos:R:3 pbc="F F F"
C        1.63470000      -0.23020000       0.00380000
C        0.16090000      -0.25710000       0.00380000
C       -0.56640000       0.94170000       0.01640000
O        0.08300000       2.13260000       0.02860000
C       -1.95260000       0.90420000       0.01580000
C       -2.61230000      -0.30890000       0.00280000
C       -1.89770000      -1.49540000      -0.00920000
C       -0.51970000      -1.47730000      -0.01460000
O        2.22290000       0.83290000       0.01470000
O        2.32960000      -1.38470000      -0.00270000
H        0.27110000       2.48700000      -0.85120000
H       -2.51700000       1.82500000       0.02580000
H       -3.69210000      -0.33260000       0.00240000
H       -2.42280000      -2.43910000      -0.01850000
H        0.03330000      -2.40490000      -0.02400000
H        3.29420000      -1.31650000      -0.00250000
